
Circuit: *** sim library ***

Doing analysis at TEMP = 25.000000 and TNOM = 27.000000


Initial Transient Solution
--------------------------

Node                                   Voltage
----                                   -------
xpicorv32_cts_r_ext.vss                      0
subckt_8644_sff1_x4_ckr                      0
xpicorv32_cts_r_ext.vdd                    1.8
subckt_8644_sff1_x4_nckr                     0
xpicorv32_cts_r_ext.abc_30082_new_n3860             1.8
xpicorv32_cts_r_ext.abc_30082_new_n3915             1.8
xpicorv32_cts_r_ext.abc_30082_new_n3938             1.8
xpicorv32_cts_r_ext.abc_30082_new_n3962             1.8
xpicorv32_cts_r_ext.abc_30082_new_n3986             1.8
xpicorv32_cts_r_ext.abc_30082_new_n4007             1.8
xpicorv32_cts_r_ext.abc_30082_new_n4030             1.8
xpicorv32_cts_r_ext.abc_30082_new_n4050             1.8
xpicorv32_cts_r_ext.abc_30082_new_n4070             1.8
xpicorv32_cts_r_ext.abc_30082_new_n4090             1.8
xpicorv32_cts_r_ext.abc_30082_new_n4110             1.8
xpicorv32_cts_r_ext.abc_30082_new_n4130             1.8
xpicorv32_cts_r_ext.abc_30082_new_n4150             1.8
xpicorv32_cts_r_ext.abc_30082_new_n4173             1.8
xpicorv32_cts_r_ext.abc_30082_new_n4192             1.8
xpicorv32_cts_r_ext.abc_30082_new_n4211             1.8
xpicorv32_cts_r_ext.abc_30082_new_n4230             1.8
xpicorv32_cts_r_ext.abc_30082_new_n4249             1.8
xpicorv32_cts_r_ext.abc_30082_new_n4268             1.8
xpicorv32_cts_r_ext.abc_30082_new_n4287             1.8
xpicorv32_cts_r_ext.abc_30082_new_n4306             1.8
xpicorv32_cts_r_ext.abc_30082_new_n4325             1.8
xpicorv32_cts_r_ext.abc_30082_new_n4344             1.8
xpicorv32_cts_r_ext.abc_30082_new_n4363             1.8
xpicorv32_cts_r_ext.abc_30082_new_n4382             1.8
xpicorv32_cts_r_ext.abc_30082_new_n4401             1.8
xpicorv32_cts_r_ext.abc_30082_new_n4420             1.8
xpicorv32_cts_r_ext.abc_30082_new_n4439             1.8
xpicorv32_cts_r_ext.decoded_imm_1             1.8
abc_30082_new_n4132                        1.8
abc_30082_new_n4131                          0
abc_30082_new_n3940                        1.8
abc_30082_new_n3939                          0
reg_pc_1                                   1.8
abc_30082_new_n4151                        1.8
abc_30082_new_n4152                          0
abc_30082_new_n4365                        1.8
abc_30082_new_n4364                          0
abc_30082_new_n4345                        1.8
abc_30082_new_n4346                          0
abc_30082_new_n4327                        1.8
abc_30082_new_n4326                          0
abc_30082_new_n4307                        1.8
abc_30082_new_n4308                          0
abc_30082_new_n4289                        1.8
abc_30082_new_n4288                          0
abc_30082_new_n4441                        1.8
abc_30082_new_n4440                          0
abc_30082_new_n4008                        1.8
abc_30082_new_n4009                          0
xpicorv32_cts_r_ext.subckt_8938_sff1_x4_y          1.4167
subckt_8938_sff1_x4_nckr                     0
subckt_8938_sff1_x4_ckr                      0
xpicorv32_cts_r_ext.subckt_8938_sff1_x4__net1        0.367502
subckt_8938_sff1_x4_sff_m                    0
xpicorv32_cts_r_ext.subckt_8938_sff1_x4__net4     4.03512e-26
xpicorv32_cts_r_ext.subckt_8938_sff1_x4__net5        0.367502
xpicorv32_cts_r_ext.subckt_8938_sff1_x4__net2    -1.74407e-27
abc_30082_new_n3987                        1.8
abc_30082_new_n3988                          0
abc_30082_new_n3893                        1.8
abc_30082_new_n3892                          0
abc_30082_new_n4052                        1.8
abc_30082_new_n4051                          0
abc_30082_new_n4071                        1.8
abc_30082_new_n4072                          0
abc_30082_new_n4111                        1.8
abc_30082_new_n4112                          0
abc_30082_new_n3917                        1.8
abc_30082_new_n3916                          0
abc_30082_new_n4231                        1.8
abc_30082_new_n4232                          0
abc_30082_new_n4472                          0
xpicorv32_cts_r_ext.subckt_1170_nand2_x0_int0         1.49347
xpicorv32_cts_r_ext.abc_30082_new_n4457             1.8
abc_30082_new_n4459                        1.8
abc_30082_new_n3876                        1.8
abc_30082_new_n3874                          0
abc_30082_new_n4213                        1.8
abc_30082_new_n4212                          0
abc_30082_new_n4193                        1.8
abc_30082_new_n4194                          0
abc_30082_new_n4421                        1.8
abc_30082_new_n4422                          0
abc_30082_new_n4175                        1.8
abc_30082_new_n4174                          0
abc_30082_new_n4403                        1.8
abc_30082_new_n4402                          0
abc_30082_new_n3964                        1.8
abc_30082_new_n3963                          0
abc_30082_new_n4383                        1.8
abc_30082_new_n4384                          0
abc_30082_new_n4269                        1.8
abc_30082_new_n4270                          0
abc_30082_new_n4251                        1.8
abc_30082_new_n4250                          0
abc_30082_new_n4032                        1.8
abc_30082_new_n4031                          0
xpicorv32_cts_r_ext.subckt_8644_sff1_x4_y               0
xpicorv32_cts_r_ext.subckt_8644_sff1_x4_sff_s        0.367472
cpu_state_bit3_hfns_0                      1.8
abc_30082_new_n4458                          0
abc_30082_new_n4092                        1.8
abc_30082_new_n4091                          0
xpicorv32_cts_r_ext.subckt_821_oa22_x2__net2     2.25018e-06
xpicorv32_cts_r_ext.subckt_821_oa22_x2__net0     4.50037e-06
xpicorv32_cts_r_ext.subckt_821_oa22_x2__net1         1.79999
xpicorv32_cts_r_ext.subckt_1171_ao22_x2__net2      4.3927e-06
xpicorv32_cts_r_ext.subckt_1171_ao22_x2__net0     8.78542e-06
xpicorv32_cts_r_ext.subckt_1171_ao22_x2__net1             1.8
xpicorv32_cts_r_ext.subckt_8644_sff1_x4_u     2.19647e-06
xpicorv32_cts_r_ext.procmux_1296_y_31             1.8
subckt_8644_sff1_x4_sff_m                  1.8
xpicorv32_cts_r_ext.subckt_8644_sff1_x4__net4       0.0781605
xpicorv32_cts_r_ext.subckt_8644_sff1_x4__net2         1.47827
xpicorv32_cts_r_ext.subckt_8644_sff1_x4__net1             1.8
xpicorv32_cts_r_ext.subckt_8644_sff1_x4__net5             1.8
xpicorv32_cts_r_ext.subckt_761_oa22_x2__net2     2.25018e-06
xpicorv32_cts_r_ext.subckt_761_oa22_x2__net0     4.50037e-06
xpicorv32_cts_r_ext.subckt_761_oa22_x2__net1         1.79999
xpicorv32_cts_r_ext.subckt_979_oa22_x2__net2     2.25018e-06
xpicorv32_cts_r_ext.subckt_979_oa22_x2__net0     4.50037e-06
xpicorv32_cts_r_ext.subckt_979_oa22_x2__net1         1.79999
xpicorv32_cts_r_ext.subckt_998_oa22_x2__net2     2.25018e-06
xpicorv32_cts_r_ext.subckt_998_oa22_x2__net0     4.50037e-06
xpicorv32_cts_r_ext.subckt_998_oa22_x2__net1         1.79999
xpicorv32_cts_r_ext.subckt_1112_oa22_x2__net2     2.25018e-06
xpicorv32_cts_r_ext.subckt_1112_oa22_x2__net0     4.50037e-06
xpicorv32_cts_r_ext.subckt_1112_oa22_x2__net1         1.79999
xpicorv32_cts_r_ext.subckt_697_oa22_x2__net2     2.25018e-06
xpicorv32_cts_r_ext.subckt_697_oa22_x2__net0     4.50037e-06
xpicorv32_cts_r_ext.subckt_697_oa22_x2__net1         1.79999
xpicorv32_cts_r_ext.subckt_1131_oa22_x2__net2     2.25018e-06
xpicorv32_cts_r_ext.subckt_1131_oa22_x2__net0     4.50037e-06
xpicorv32_cts_r_ext.subckt_1131_oa22_x2__net1         1.79999
xpicorv32_cts_r_ext.subckt_903_oa22_x2__net2     2.25018e-06
xpicorv32_cts_r_ext.subckt_903_oa22_x2__net0     4.50037e-06
xpicorv32_cts_r_ext.subckt_903_oa22_x2__net1         1.79999
xpicorv32_cts_r_ext.subckt_1150_oa22_x2__net2     2.25018e-06
xpicorv32_cts_r_ext.subckt_1150_oa22_x2__net0     4.50037e-06
xpicorv32_cts_r_ext.subckt_1150_oa22_x2__net1         1.79999
xpicorv32_cts_r_ext.subckt_922_oa22_x2__net2     2.25018e-06
xpicorv32_cts_r_ext.subckt_922_oa22_x2__net0     4.50037e-06
xpicorv32_cts_r_ext.subckt_922_oa22_x2__net1         1.79999
xpicorv32_cts_r_ext.subckt_941_oa22_x2__net2     2.25018e-06
xpicorv32_cts_r_ext.subckt_941_oa22_x2__net0     4.50037e-06
xpicorv32_cts_r_ext.subckt_941_oa22_x2__net1         1.79999
xpicorv32_cts_r_ext.subckt_602_oa22_x2__net2     2.25018e-06
xpicorv32_cts_r_ext.subckt_602_oa22_x2__net0     4.50037e-06
xpicorv32_cts_r_ext.subckt_602_oa22_x2__net1         1.79999
xpicorv32_cts_r_ext.subckt_1184_oa22_x2__net2     2.25018e-06
xpicorv32_cts_r_ext.abc_30082_new_n4460             1.8
xpicorv32_cts_r_ext.subckt_1184_oa22_x2__net0     4.50037e-06
xpicorv32_cts_r_ext.subckt_1184_oa22_x2__net1         1.79999
xpicorv32_cts_r_ext.subckt_960_oa22_x2__net2     2.25018e-06
xpicorv32_cts_r_ext.subckt_960_oa22_x2__net0     4.50037e-06
xpicorv32_cts_r_ext.subckt_960_oa22_x2__net1         1.79999
xpicorv32_cts_r_ext.subckt_649_oa22_x2__net2     2.25018e-06
xpicorv32_cts_r_ext.subckt_649_oa22_x2__net0     4.50037e-06
xpicorv32_cts_r_ext.subckt_649_oa22_x2__net1         1.79999
xpicorv32_cts_r_ext.subckt_841_oa22_x2__net2     2.25018e-06
xpicorv32_cts_r_ext.subckt_841_oa22_x2__net0     4.50037e-06
xpicorv32_cts_r_ext.subckt_841_oa22_x2__net1         1.79999
xpicorv32_cts_r_ext.subckt_801_oa22_x2__net2     2.25018e-06
xpicorv32_cts_r_ext.subckt_801_oa22_x2__net0     4.50037e-06
xpicorv32_cts_r_ext.subckt_801_oa22_x2__net1         1.79999
xpicorv32_cts_r_ext.subckt_781_oa22_x2__net2     2.25018e-06
xpicorv32_cts_r_ext.subckt_781_oa22_x2__net0     4.50037e-06
xpicorv32_cts_r_ext.subckt_781_oa22_x2__net1         1.79999
xpicorv32_cts_r_ext.abc_30082_new_n3891             1.8
xpicorv32_cts_r_ext.subckt_626_oa22_x2__net2     2.25018e-06
xpicorv32_cts_r_ext.subckt_626_oa22_x2__net0     4.50037e-06
xpicorv32_cts_r_ext.subckt_626_oa22_x2__net1         1.79999
xpicorv32_cts_r_ext.subckt_718_oa22_x2__net2     2.25018e-06
xpicorv32_cts_r_ext.subckt_718_oa22_x2__net0     4.50037e-06
xpicorv32_cts_r_ext.subckt_718_oa22_x2__net1         1.79999
xpicorv32_cts_r_ext.subckt_8938_sff1_x4__net6               0
subckt_8938_sff1_x4_sff_s                    0
xpicorv32_cts_r_ext.subckt_8938_sff1_x4__net0        0.367502
xpicorv32_cts_r_ext.subckt_741_oa22_x2__net2     2.25018e-06
xpicorv32_cts_r_ext.subckt_741_oa22_x2__net0     4.50037e-06
xpicorv32_cts_r_ext.subckt_741_oa22_x2__net1         1.79999
xpicorv32_cts_r_ext.subckt_1168_oa22_x2__net2     2.25018e-06
xpicorv32_cts_r_ext.subckt_1168_oa22_x2__net0     4.50037e-06
xpicorv32_cts_r_ext.subckt_1168_oa22_x2__net1         1.79999
xpicorv32_cts_r_ext.subckt_1017_oa22_x2__net2     2.25018e-06
xpicorv32_cts_r_ext.subckt_1017_oa22_x2__net0     4.50037e-06
xpicorv32_cts_r_ext.subckt_1017_oa22_x2__net1         1.79999
xpicorv32_cts_r_ext.subckt_1036_oa22_x2__net2     2.25018e-06
xpicorv32_cts_r_ext.subckt_1036_oa22_x2__net0     4.50037e-06
xpicorv32_cts_r_ext.subckt_1036_oa22_x2__net1         1.79999
xpicorv32_cts_r_ext.subckt_1055_oa22_x2__net2     2.25018e-06
xpicorv32_cts_r_ext.subckt_1055_oa22_x2__net0     4.50037e-06
xpicorv32_cts_r_ext.subckt_1055_oa22_x2__net1         1.79999
xpicorv32_cts_r_ext.subckt_1074_oa22_x2__net2     2.25018e-06
xpicorv32_cts_r_ext.subckt_1074_oa22_x2__net0     4.50037e-06
xpicorv32_cts_r_ext.subckt_1074_oa22_x2__net1         1.79999
xpicorv32_cts_r_ext.subckt_1093_oa22_x2__net2     2.25018e-06
xpicorv32_cts_r_ext.subckt_1093_oa22_x2__net0     4.50037e-06
xpicorv32_cts_r_ext.subckt_1093_oa22_x2__net1         1.79999
xpicorv32_cts_r_ext.subckt_884_oa22_x2__net2     2.25018e-06
xpicorv32_cts_r_ext.subckt_884_oa22_x2__net0     4.50037e-06
xpicorv32_cts_r_ext.subckt_884_oa22_x2__net1         1.79999
xpicorv32_cts_r_ext.subckt_571_a2_x2__net1      2.2506e-06
xpicorv32_cts_r_ext.subckt_571_a2_x2__net0      4.5012e-06
xpicorv32_cts_r_ext.subckt_673_oa22_x2__net2     2.25018e-06
xpicorv32_cts_r_ext.subckt_673_oa22_x2__net0     4.50037e-06
xpicorv32_cts_r_ext.subckt_673_oa22_x2__net1         1.79999
xpicorv32_cts_r_ext.subckt_861_oa22_x2__net2     2.25018e-06
xpicorv32_cts_r_ext.subckt_861_oa22_x2__net0     4.50037e-06
xpicorv32_cts_r_ext.subckt_861_oa22_x2__net1         1.79999
v71#branch                         0.000257304
v70#branch                         0.000523056
v69#branch                         8.11759e-09
v68#branch                        -1.02173e-11
v67#branch                         8.11759e-09
v66#branch                        -1.02173e-11
v65#branch                        -1.02173e-11
v64#branch                         8.11759e-09
v63#branch                        -5.10865e-12
v62#branch                         8.11759e-09
v61#branch                        -1.02173e-11
v60#branch                         8.11759e-09
v59#branch                        -5.10865e-12
v58#branch                         8.11759e-09
v57#branch                        -1.02173e-11
v56#branch                         8.11759e-09
v55#branch                        -5.10865e-12
v54#branch                         8.11759e-09
v53#branch                        -1.02173e-11
v52#branch                         8.11759e-09
v51#branch                        -1.02173e-11
v50#branch                         8.11759e-09
v49#branch                        -5.10865e-12
v48#branch                         8.11759e-09
v47#branch                        -5.10865e-12
v46#branch                         8.11759e-09
v45#branch                        -5.10865e-12
v44#branch                         8.11759e-09
v43#branch                        -1.02173e-11
v42#branch                         8.11759e-09
v41#branch                        -5.10865e-12
v40#branch                         8.11759e-09
v39#branch                        -5.10865e-12
v38#branch                         8.11759e-09
v37#branch                        -1.02173e-11
v36#branch                         8.11759e-09
v35#branch                        -5.10865e-12
v34#branch                        -7.26626e-12
v33#branch                         7.91572e-09
v32#branch                         8.11759e-09
v31#branch                        -1.02173e-11
v30#branch                         8.11759e-09
v29#branch                        -1.02173e-11
v28#branch                         8.11759e-09
v27#branch                        -5.10865e-12
v26#branch                         8.11759e-09
v25#branch                        -5.10865e-12
v24#branch                         8.11759e-09
v23#branch                        -1.02173e-11
v22#branch                         8.11759e-09
v21#branch                        -1.02173e-11
v20#branch                         8.11759e-09
v19#branch                        -1.02173e-11
v18#branch                         8.11759e-09
v17#branch                        -5.10865e-12
v16#branch                         8.11759e-09
v15#branch                        -5.10865e-12
v14#branch                         8.11759e-09
v13#branch                        -1.02173e-11
v12#branch                         8.11759e-09
v11#branch                        -5.10865e-12
v10#branch                         1.62352e-08
v9#branch                          -1.9653e-11
v8#branch                          8.11759e-09
v7#branch                         -1.02173e-11
v6#branch                          3.79388e-09
v5#branch                          3.95786e-09
v4#branch                          0.000523056
v3#branch                          3.95786e-09
v2#branch                            -0.112564
v1#branch                             0.111261

 Reference value :  0.00000e+00%0.00%0.00%0.00%0.00%0.00%0.01%0.02%0.03%0.05%0.06%0.08%0.09%0.11%0.12%0.14%0.15%0.17%0.18%0.20%0.21%0.23%0.24%0.25%0.27%0.28%0.30%0.31%0.33%0.34%0.36%0.37%0.39%0.40 Reference value :  2.72800e-11%0.42%0.43%0.45%0.46%0.48%0.49%0.51%0.52%0.54%0.55%0.56%0.58%0.59%0.61%0.62%0.64%0.65%0.67%0.68%0.70%0.71%0.73%0.74%0.76%0.77%0.79%0.80%0.82%0.83%0.84%0.86 Reference value :  5.82800e-11%0.87%0.89%0.90%0.92%0.93%0.95%0.96%0.98%0.99%1.01%1.02%1.04%1.05%1.07%1.08%1.10%1.11%1.13%1.14%1.15%1.17%1.18%1.18%1.18%1.19%1.20%1.22%1.23%1.25%1.26%1.28%1.29 Reference value :  8.75000e-11%1.31%1.32%1.33%1.33%1.33%1.34%1.35%1.36%1.38%1.39%1.41%1.42%1.44%1.45%1.47%1.48%1.50%1.51%1.53%1.53%1.54%1.54%1.54%1.56%1.57%1.59%1.60%1.61%1.63%1.64%1.66%1.67 Reference value :  1.13500e-10%1.69%1.70%1.71%1.71%1.72%1.72%1.73%1.75%1.76%1.78%1.79%1.81%1.82%1.84%1.85%1.87%1.88%1.90%1.90%1.90%1.91%1.91%1.92%1.94%1.95%1.97%1.98%2.00%2.01%2.03%2.04%2.06%2.07%2.09%2.09 Reference value :  1.42000e-10%2.10%2.10%2.10%2.12%2.13%2.15%2.16%2.18%2.19%2.20%2.22%2.23%2.25%2.26%2.28%2.29%2.31%2.32%2.32%2.32%2.33%2.34%2.35%2.37%2.38%2.40%2.41%2.43%2.44%2.46 Reference value :  1.66500e-10%2.47%2.49%2.50%2.51%2.53%2.54%2.56%2.57%2.57%2.57%2.58%2.59%2.60%2.62%2.63%2.65%2.66%2.68%2.69%2.71%2.72%2.74%2.75%2.77%2.78%2.79%2.81%2.82%2.84%2.85%2.85%2.85%2.86 Reference value :  1.93700e-10%2.87%2.88%2.90%2.91%2.93%2.94%2.96%2.97%2.99%3.00%3.02%3.03%3.05%3.06%3.08%3.09%3.10%3.12%3.13%3.15%3.16%3.18%3.19%3.20%3.20%3.20%3.21%3.22%3.24%3.25%3.27%3.28%3.30%3.31%3.33%3.34%3.36%3.37%3.38 Reference value :  2.29500e-10%3.40%3.41%3.43%3.44%3.46%3.47%3.49%3.50%3.52%3.53%3.55%3.56%3.58%3.59%3.61%3.62%3.64%3.65%3.67%3.67%3.67%3.68%3.68%3.69%3.70%3.70%3.71%3.71%3.72%3.74%3.75%3.77%3.78%3.80%3.81%3.83%3.84 Reference value :  2.60500e-10%3.86%3.87%3.89%3.90%3.92%3.93%3.95%3.96%3.97%3.99%4.00%4.02%4.03%4.05%4.06%4.08%4.09%4.11%4.12%4.14%4.15%4.17%4.18%4.20%4.21%4.23%4.24%4.26%4.27%4.28%4.30%4.31%4.33%4.34%4.36%4.37%4.39%4.40%4.42 Reference value :  2.99500e-10%4.43%4.45%4.46%4.48%4.49%4.51%4.52%4.54%4.55%4.56%4.58%4.59%4.61%4.62%4.64%4.65%4.67%4.68%4.70%4.71%4.73%4.74%4.76%4.77%4.79%4.80%4.82%4.83%4.84%4.86%4.87%4.89%4.90%4.92 Reference value :  3.33500e-10%4.93%4.95%4.96%4.98%4.99%5.01%5.02%5.04%5.05%5.07%5.08%5.10%5.11%5.13%5.14%5.15%5.17%5.18%5.20%5.21%5.23%5.24%5.26%5.27%5.29%5.30%5.32%5.33%5.35%5.36%5.38%5.39%5.41%5.42%5.43%5.45%5.46%5.48%5.49%5.51%5.52%5.54 Reference value :  3.75500e-10%5.55%5.57%5.58%5.60%5.61%5.63%5.64%5.66%5.67%5.69%5.70%5.72%5.73%5.74%5.76%5.77%5.79%5.80%5.82%5.83%5.85%5.86%5.88%5.89%5.91%5.92%5.94%5.95%5.97%5.98%6.00%6.01%6.02%6.04%6.05%6.07%6.08%6.10%6.11%6.13%6.14 Reference value :  4.16500e-10%6.16%6.17%6.19%6.20%6.22%6.23%6.25%6.26%6.28%6.29%6.31%6.32%6.33%6.35%6.36%6.38%6.39%6.41%6.42%6.44%6.45%6.47%6.48%6.50%6.51%6.53%6.54%6.56%6.57%6.59%6.60%6.61%6.63%6.64%6.66%6.67%6.69%6.70%6.72%6.73%6.75%6.76 Reference value :  4.58500e-10%6.78%6.79%6.81%6.82%6.84%6.85%6.87%6.88%6.90%6.91%6.92%6.94%6.95%6.97%6.98%7.00%7.01%7.03%7.04%7.06%7.07%7.09%7.10%7.12%7.13%7.15%7.16%7.18%7.19%7.20%7.22%7.23%7.25%7.26%7.28%7.29%7.31%7.32%7.34%7.35%7.37%7.38 Reference value :  5.00500e-10%7.40%7.41%7.43%7.44%7.46%7.47%7.49%7.50%7.51%7.53%7.54%7.56%7.57%7.59%7.60%7.62%7.63%7.65%7.66%7.68%7.69%7.71%7.72%7.74%7.75%7.77%7.78%7.79%7.81%7.82%7.84%7.85%7.87%7.88%7.90%7.91%7.93%7.94%7.96%7.97%7.99%8.00%8.02 Reference value :  5.43500e-10%8.03%8.05%8.06%8.07%8.09%8.10%8.12%8.13%8.15%8.16%8.18%8.19%8.21%8.22%8.24%8.25%8.27%8.28%8.30%8.31%8.33%8.34%8.36%8.37%8.38%8.40%8.41%8.43%8.44%8.46%8.47%8.49%8.50%8.52%8.53%8.55%8.56%8.58%8.59%8.61%8.62%8.64%8.65 Reference value :  5.86500e-10%8.66%8.68%8.69%8.71%8.72%8.74%8.75%8.77%8.78%8.80%8.81%8.83%8.84%8.86%8.87%8.89%8.90%8.92%8.93%8.95%8.96%8.97%8.99%9.00%9.02%9.03%9.05%9.06%9.08%9.09%9.11%9.12%9.14%9.15%9.17%9.18%9.20%9.21%9.23%9.24%9.25%9.27 Reference value :  6.28500e-10%9.28%9.30%9.31%9.33%9.34%9.36%9.37%9.39%9.40%9.42%9.43%9.45%9.46%9.48%9.49%9.51%9.52%9.54%9.55%9.56%9.58%9.59%9.61%9.62%9.64%9.65%9.67%9.68%9.70%9.71%9.73%9.74%9.76%9.77%9.79%9.80%9.82%9.83%9.84%9.86%9.87%9.89 Reference value :  6.70500e-10%9.90%9.92%9.93%9.95%9.96%9.98%9.99%10.01%10.02%10.04%10.05%10.07%10.08%10.10%10.11%10.13%10.14%10.15%10.17%10.18%10.20%10.21%10.23%10.24%10.26%10.27%10.29%10.30%10.32%10.33%10.35%10.36%10.38%10.39%10.41%10.42%10.43%10.45%10.46%10.48%10.49%10.51 Reference value :  7.12500e-10%10.52%10.54%10.55%10.57%10.58%10.60%10.61%10.63%10.64%10.66%10.67%10.69%10.70%10.72%10.73%10.74%10.76%10.77%10.79%10.80%10.82%10.83%10.85%10.86%10.88%10.89%10.91%10.92%10.94%10.95%10.97%10.98%11.00%11.01%11.02%11.04%11.05%11.07%11.08%11.10%11.11%11.13 Reference value :  7.54500e-10%11.14%11.16%11.17%11.19%11.20%11.22%11.23%11.25%11.26%11.28%11.29%11.30%11.32%11.33%11.35%11.36%11.38%11.39%11.41%11.42%11.44%11.45%11.47%11.48%11.50%11.51%11.53%11.54%11.56%11.57%11.59%11.60%11.61%11.63%11.64%11.66%11.67%11.69%11.70 Reference value :  7.93500e-10%11.72%11.73%11.75%11.76%11.78%11.79%11.81%11.82%11.84%11.85%11.87%11.88%11.89%11.91%11.92%11.94%11.95%11.97%11.98%12.00%12.01%12.03%12.04%12.06%12.07%12.09%12.10%12.12%12.13%12.15%12.16%12.18%12.19%12.20%12.22%12.23%12.25%12.26%12.28%12.29%12.31 Reference value :  8.34500e-10%12.32%12.34%12.35%12.37%12.38%12.40%12.41%12.43%12.44%12.46%12.47%12.48%12.50%12.51%12.53%12.54%12.56%12.57%12.59%12.60%12.62%12.63%12.65%12.66%12.68%12.69%12.71%12.72%12.74%12.75%12.77%12.78%12.79%12.81%12.82%12.84%12.85%12.87%12.88%12.90%12.91%12.93 Reference value :  8.76500e-10%12.94%12.96%12.97%12.99%13.00%13.02%13.03%13.05%13.06%13.07%13.09%13.10%13.12%13.13%13.15%13.16%13.18%13.19%13.21%13.22%13.24%13.25%13.27%13.28%13.30%13.31%13.33%13.34%13.36%13.37%13.38%13.40%13.41%13.43%13.44%13.46%13.47%13.49%13.50%13.52%13.53%13.55 Reference value :  9.18500e-10%13.56%13.58%13.59%13.61%13.62%13.64%13.65%13.66%13.68%13.69%13.71%13.72%13.74%13.75%13.77%13.78%13.80%13.81%13.83%13.84%13.86%13.87%13.89%13.90%13.92%13.93%13.95%13.96%13.97%13.99%14.00%14.02%14.03%14.05%14.06%14.08%14.09%14.11%14.12%14.14%14.15%14.17 Reference value :  9.60500e-10%14.18%14.20%14.21%14.23%14.24%14.25%14.27%14.28%14.30%14.31%14.33%14.34%14.36%14.37%14.39%14.40%14.42%14.43%14.45%14.46%14.48%14.49%14.51%14.52%14.53%14.55%14.56%14.58%14.59%14.61%14.62%14.64%14.65%14.67%14.68%14.70%14.71%14.73%14.74%14.76%14.77%14.79%14.80 Reference value :  1.00350e-09%14.82%14.83%14.84%14.86%14.87%14.89%14.90%14.92%14.93%14.95%14.96%14.98%14.99%15.01%15.02%15.04%15.05%15.07%15.08%15.10%15.11%15.12%15.14%15.15%15.17%15.18%15.20%15.21%15.23%15.24%15.26%15.27%15.29%15.30%15.32%15.33%15.35%15.36%15.38%15.39 Reference value :  1.04350e-09%15.41%15.42%15.43%15.45%15.46%15.48%15.49%15.51%15.52%15.54%15.55%15.57%15.58%15.60%15.61%15.63%15.64%15.66%15.67%15.69%15.70%15.71%15.73%15.74%15.76%15.77%15.79%15.80%15.82%15.83%15.85%15.86%15.88%15.89%15.91%15.92%15.94%15.95%15.97%15.98%16.00%16.01 Reference value :  1.08550e-09%16.02%16.04%16.05%16.07%16.08%16.10%16.11%16.13%16.14%16.16%16.17%16.19%16.20%16.22%16.23%16.25%16.26%16.28%16.29%16.30%16.32%16.33%16.35%16.36%16.38%16.39%16.41%16.42%16.44%16.45%16.47%16.48%16.50%16.51%16.53%16.54%16.56%16.57%16.59%16.60%16.61%16.63 Reference value :  1.12750e-09%16.64%16.66%16.67%16.69%16.70%16.72%16.73%16.75%16.76%16.78%16.79%16.81%16.82%16.84%16.85%16.87%16.88%16.89%16.91%16.92%16.94%16.95%16.97%16.98%17.00%17.01%17.03%17.04%17.06%17.07%17.09%17.10%17.12%17.13%17.15%17.16%17.18%17.19%17.20%17.22%17.23%17.25%17.26 Reference value :  1.17050e-09%17.28%17.29%17.31%17.32%17.34%17.35%17.37%17.38%17.40%17.41%17.43%17.44%17.46%17.47%17.48%17.50%17.51%17.53%17.54%17.56%17.57%17.59%17.60%17.62%17.63%17.65%17.66%17.68%17.69%17.71%17.72%17.74%17.75%17.76%17.78%17.79%17.81%17.82%17.84%17.85%17.87%17.88 Reference value :  1.21250e-09%17.90%17.91%17.93%17.94%17.96%17.97%17.99%18.00%18.02%18.03%18.05%18.06%18.07%18.09%18.10%18.12%18.13%18.15%18.16%18.18%18.19%18.21%18.22%18.24%18.25%18.27%18.28%18.30%18.31%18.33%18.34%18.35%18.37%18.38%18.40%18.41%18.43%18.44%18.46%18.47%18.49%18.50 Reference value :  1.25450e-09%18.52%18.53%18.55%18.56%18.58%18.59%18.61%18.62%18.64%18.65%18.66%18.68%18.69%18.71%18.72%18.74%18.75%18.77%18.78%18.80%18.81%18.83%18.84%18.86%18.87%18.89%18.90%18.92%18.93%18.94%18.96%18.97%18.99%19.00%19.02%19.03%19.05%19.06%19.08%19.09%19.11 Reference value :  1.29550e-09%19.12%19.14%19.15%19.17%19.18%19.20%19.21%19.23%19.24%19.25%19.27%19.28%19.30%19.31%19.33%19.34%19.36%19.37%19.39%19.40%19.42%19.43%19.45%19.46%19.48%19.49%19.51%19.52%19.53%19.55%19.56%19.58%19.59%19.61%19.62%19.64%19.65%19.67%19.68%19.70%19.71%19.73 Reference value :  1.33750e-09%19.74%19.76%19.77%19.79%19.80%19.82%19.83%19.84%19.86%19.87%19.89%19.90%19.92%19.93%19.95%19.96%19.98%19.99%20.01%20.02%20.04%20.05%20.07%20.08%20.10%20.11%20.12%20.14%20.15%20.17%20.18%20.20%20.21%20.23%20.24%20.26%20.27%20.29%20.30%20.32%20.33%20.35 Reference value :  1.37950e-09%20.36%20.38%20.39%20.41%20.42%20.43%20.45%20.46%20.48%20.49%20.51%20.52%20.54%20.55%20.57%20.58%20.60%20.61%20.63%20.64%20.66%20.67%20.69%20.70%20.71%20.73%20.74%20.76%20.77%20.79%20.80%20.82%20.83%20.85%20.86%20.88%20.89%20.91%20.92%20.94%20.95 Reference value :  1.42050e-09%20.97%20.98%20.99%21.01%21.02%21.04%21.05%21.07%21.08%21.10%21.11%21.13%21.14%21.16%21.17%21.19%21.20%21.22%21.23%21.25%21.26%21.28%21.29%21.30%21.32%21.33%21.35%21.36%21.38%21.39%21.41%21.42%21.44%21.45%21.47%21.48%21.50%21.51%21.53%21.54%21.56 Reference value :  1.46150e-09%21.57%21.58%21.60%21.61%21.63%21.64%21.66%21.67%21.69%21.70%21.72%21.73%21.75%21.76%21.78%21.79%21.81%21.82%21.84%21.85%21.87%21.88%21.89%21.91%21.92%21.94%21.95%21.97%21.98%22.00%22.01%22.03%22.04%22.06%22.07%22.09%22.10%22.12%22.13%22.15 Reference value :  1.50150e-09%22.16%22.17%22.19%22.20%22.22%22.23%22.25%22.26%22.28%22.29%22.31%22.32%22.34%22.35%22.37%22.38%22.40%22.41%22.43%22.44%22.46%22.47%22.48%22.50%22.51%22.53%22.54%22.56%22.57%22.59%22.60%22.62%22.63%22.65%22.66%22.68%22.69%22.71%22.72 Reference value :  1.54050e-09%22.74%22.75%22.76%22.78%22.79%22.81%22.82%22.84%22.85%22.87%22.88%22.90%22.91%22.93%22.94%22.96%22.97%22.99%23.00%23.02%23.03%23.05%23.06%23.07%23.09%23.10%23.12%23.13%23.15%23.16%23.18%23.19%23.21%23.22%23.24%23.25%23.27%23.28%23.30%23.31%23.33%23.34 Reference value :  1.58250e-09%23.35%23.37%23.38%23.40%23.41%23.43%23.44%23.46%23.47%23.49%23.50%23.52%23.53%23.55%23.56%23.58%23.59%23.61%23.62%23.63%23.65%23.66%23.68%23.69%23.71%23.72%23.74%23.75%23.77%23.78%23.80%23.81%23.83%23.84%23.86%23.87%23.89%23.90%23.92%23.93%23.94%23.96 Reference value :  1.62450e-09%23.97%23.99%24.00%24.02%24.03%24.05%24.06%24.08%24.09%24.11%24.12%24.14%24.15%24.17%24.18%24.20%24.21%24.22%24.24%24.25%24.27%24.28%24.30%24.31%24.33%24.34%24.36%24.37%24.39%24.40%24.42%24.43%24.45%24.46%24.48%24.49%24.51%24.52%24.53%24.55%24.56 Reference value :  1.66550e-09%24.58%24.59%24.61%24.62%24.64%24.65%24.67%24.68%24.70%24.71%24.73%24.74%24.76%24.77%24.79%24.80%24.81%24.83%24.84%24.86%24.87%24.89%24.90%24.92%24.93%24.95%24.96%24.98%24.99%25.01%25.02%25.04%25.05%25.07%25.08%25.10%25.11%25.12%25.14%25.15%25.17 Reference value :  1.70650e-09%25.18%25.20%25.21%25.23%25.24%25.26%25.27%25.29%25.30%25.32%25.33%25.35%25.36%25.38%25.39%25.40%25.42%25.43%25.45%25.46%25.48%25.49%25.51%25.52%25.54%25.55%25.57%25.58%25.60%25.61%25.63%25.64%25.66%25.67%25.69%25.70%25.71%25.73%25.74%25.76%25.77 Reference value :  1.74750e-09%25.79%25.80%25.82%25.83%25.85%25.86%25.88%25.89%25.91%25.92%25.94%25.95%25.97%25.98%25.99%26.01%26.02%26.04%26.05%26.07%26.08%26.10%26.11%26.13%26.14%26.16%26.17%26.19%26.20%26.22%26.23%26.25%26.26%26.28%26.29%26.30%26.32%26.33%26.35%26.36%26.38%26.39 Reference value :  1.78950e-09%26.41%26.42%26.44%26.45%26.47%26.48%26.50%26.51%26.53%26.54%26.56%26.57%26.58%26.60%26.61%26.63%26.64%26.66%26.67%26.69%26.70%26.72%26.73%26.75%26.76%26.78%26.79%26.81%26.82%26.84%26.85%26.86%26.88%26.89%26.91%26.92%26.94%26.95%26.97%26.98%27.00%27.01 Reference value :  1.83150e-09%27.03%27.04%27.06%27.07%27.09%27.10%27.12%27.13%27.15%27.16%27.17%27.19%27.20%27.22%27.23%27.25%27.26%27.28%27.29%27.31%27.32%27.34%27.35%27.37%27.38%27.40%27.41%27.43%27.44%27.45%27.47%27.48%27.50%27.51%27.53%27.54%27.56%27.57%27.59%27.60 Reference value :  1.87150e-09%27.62%27.63%27.65%27.66%27.68%27.69%27.71%27.72%27.74%27.75%27.76%27.78%27.79%27.81%27.82%27.84%27.85%27.87%27.88%27.90%27.91%27.93%27.94%27.96%27.97%27.99%28.00%28.02%28.03%28.04%28.06%28.07%28.09%28.10%28.12%28.13%28.15%28.16%28.18%28.19%28.21%28.22%28.24 Reference value :  1.91450e-09%28.25%28.27%28.28%28.30%28.31%28.33%28.34%28.35%28.37%28.38%28.40%28.41%28.43%28.44%28.46%28.47%28.49%28.50%28.52%28.53%28.55%28.56%28.58%28.59%28.61%28.62%28.63%28.65%28.66%28.68%28.69%28.71%28.72%28.74%28.75%28.77%28.78%28.80%28.81%28.83 Reference value :  1.95450e-09%28.84%28.86%28.87%28.89%28.90%28.92%28.93%28.94%28.96%28.97%28.99%29.00%29.02%29.03%29.05%29.06%29.08%29.09%29.11%29.12%29.14%29.15%29.17%29.18%29.20%29.21%29.22%29.24%29.25%29.27%29.28%29.30%29.31%29.33%29.34%29.36%29.37%29.39%29.40%29.42%29.43 Reference value :  1.99550e-09%29.45%29.46%29.48%29.49%29.51%29.52%29.53%29.55%29.56%29.58%29.59%29.61%29.62%29.64%29.65%29.67%29.68%29.70%29.71%29.73%29.74%29.76%29.77%29.79%29.80%29.81%29.83%29.84%29.86%29.87%29.89%29.90%29.92%29.93%29.95%29.96%29.98%29.99%30.01%30.02%30.04 Reference value :  2.03650e-09%30.05%30.07%30.08%30.09%30.11%30.12%30.14%30.15%30.17%30.18%30.20%30.21%30.23%30.24%30.26%30.27%30.29%30.30%30.32%30.33%30.35%30.36%30.38%30.39%30.40%30.42%30.43%30.45%30.46%30.48%30.49%30.51%30.52%30.54%30.55%30.57%30.58%30.60%30.61%30.63%30.64%30.66 Reference value :  2.07850e-09%30.67%30.68%30.70%30.71%30.73%30.74%30.76%30.77%30.79%30.80%30.82%30.83%30.85%30.86%30.88%30.89%30.91%30.92%30.94%30.95%30.97%30.98%30.99%31.01%31.02%31.04%31.05%31.07%31.08%31.10%31.11%31.13%31.14%31.16%31.17%31.19%31.20%31.22%31.23%31.25%31.26%31.27 Reference value :  2.12050e-09%31.29%31.30%31.32%31.33%31.35%31.36%31.38%31.39%31.41%31.42%31.44%31.45%31.47%31.48%31.50%31.51%31.53%31.54%31.56%31.57%31.58%31.60%31.61%31.63%31.64%31.66%31.67%31.69%31.70%31.72%31.73%31.75%31.76%31.78%31.79%31.81%31.82%31.84%31.85%31.86%31.88 Reference value :  2.16150e-09%31.89%31.91%31.92%31.94%31.95%31.97%31.98%32.00%32.01%32.03%32.04%32.06%32.07%32.09%32.10%32.12%32.13%32.15%32.16%32.17%32.19%32.20%32.22%32.23%32.25%32.26%32.28%32.29%32.31%32.32%32.34%32.35%32.37%32.38%32.40%32.41%32.43%32.44%32.45%32.47 Reference value :  2.20150e-09%32.48%32.50%32.51%32.53%32.54%32.56%32.57%32.59%32.60%32.62%32.63%32.65%32.66%32.68%32.69%32.71%32.72%32.74%32.75%32.76%32.78%32.79%32.81%32.82%32.84%32.85%32.87%32.88%32.90%32.91%32.93%32.94%32.96%32.97%32.99%33.00%33.02%33.03%33.04%33.06%33.07%33.09%33.10%33.12 Reference value :  2.24550e-09%33.13%33.15%33.16%33.18%33.19%33.21%33.22%33.24%33.25%33.27%33.28%33.30%33.31%33.32%33.34%33.35%33.37%33.38%33.40%33.41%33.43%33.44%33.46%33.47%33.49%33.50%33.52%33.53%33.55%33.56%33.58%33.59%33.61%33.62%33.63%33.65%33.66%33.68%33.69%33.71%33.72%33.74%33.75%33.77%33.78%33.80 Reference value :  2.29150e-09%33.81%33.83%33.84%33.86%33.87%33.89%33.90%33.91%33.93%33.94%33.96%33.97%33.99%34.00%34.02%34.03%34.05%34.06%34.08%34.09%34.11%34.12%34.14%34.15%34.17%34.18%34.20%34.21%34.22%34.24%34.25%34.27%34.28%34.30 Reference value :  2.32550e-09%34.31%34.33%34.34%34.36%34.37%34.39%34.40%34.42%34.43%34.45%34.46%34.48%34.49%34.50%34.52%34.53%34.55%34.56%34.58%34.59%34.61%34.62%34.64%34.65%34.67%34.68%34.70%34.71%34.73%34.74%34.76%34.77%34.79%34.80%34.81%34.83%34.84 Reference value :  2.36250e-09%34.86%34.87%34.89%34.90%34.92%34.93%34.95%34.96%34.98%34.99%35.01%35.02%35.04%35.05%35.07%35.08%35.09%35.11%35.12%35.14%35.15%35.17%35.18%35.20%35.21%35.23%35.24%35.26%35.27%35.29%35.30%35.32%35.33%35.35%35.36%35.38%35.39%35.40 Reference value :  2.40050e-09%35.42%35.43%35.45%35.46%35.48%35.49%35.51%35.52%35.54%35.55%35.57%35.58%35.60%35.61%35.63%35.64%35.66%35.67%35.68%35.70%35.71%35.73%35.74%35.76%35.77%35.79%35.80%35.82%35.83%35.85%35.86%35.88%35.89%35.91%35.92%35.94%35.95%35.97%35.98%35.99%36.01 Reference value :  2.44150e-09%36.02%36.04%36.05%36.07%36.08%36.10%36.11%36.13%36.14%36.16%36.17%36.19%36.20%36.22%36.23%36.25%36.26%36.27%36.29%36.30%36.32%36.33%36.35%36.36%36.38%36.39%36.41%36.42%36.44%36.45%36.47%36.48%36.50%36.51%36.53%36.54%36.55%36.57%36.58%36.60%36.61%36.63%36.64 Reference value :  2.48450e-09%36.66%36.67%36.69%36.70%36.72%36.73%36.75%36.76%36.78%36.79%36.81%36.82%36.84%36.85%36.86%36.88%36.89%36.91%36.92%36.94%36.95%36.97%36.98%37.00%37.01%37.03%37.04%37.06%37.07%37.09%37.10%37.12%37.13%37.14%37.16%37.17%37.19%37.20%37.22%37.23 Reference value :  2.52450e-09%37.25%37.26%37.28%37.29%37.31%37.32%37.34%37.35%37.37%37.38%37.40%37.41%37.43%37.44%37.45%37.47%37.48%37.50%37.51%37.53%37.54%37.56%37.57%37.59%37.60%37.62%37.63%37.65%37.66%37.68%37.69%37.71%37.72%37.73%37.75%37.76%37.78%37.79%37.81%37.82%37.84%37.85 Reference value :  2.56650e-09%37.87%37.88%37.90%37.91%37.93%37.94%37.96%37.97%37.99%38.00%38.02%38.03%38.04%38.06%38.07%38.09%38.10%38.12%38.13%38.15%38.16%38.18%38.19%38.21%38.22%38.24%38.25%38.27%38.28%38.30%38.31%38.32%38.34%38.35%38.37%38.38%38.40%38.41%38.43%38.44%38.46 Reference value :  2.60750e-09%38.47%38.49%38.50%38.52%38.53%38.55%38.56%38.58%38.59%38.61%38.62%38.63%38.65%38.66%38.68%38.69%38.71%38.72%38.74%38.75%38.77%38.78%38.80%38.81%38.83%38.84%38.86%38.87%38.89%38.90%38.91%38.93%38.94%38.96%38.97%38.99%39.00%39.02%39.03%39.05%39.06%39.08%39.09 Reference value :  2.65050e-09%39.11%39.12%39.14%39.15%39.17%39.18%39.20%39.21%39.22%39.24%39.25%39.27%39.28%39.30%39.31%39.33%39.34%39.36%39.37%39.39%39.40%39.42%39.43%39.45%39.46%39.48%39.49%39.50%39.52%39.53%39.55%39.56%39.58%39.59%39.61%39.62%39.64%39.65%39.67%39.68%39.70 Reference value :  2.69150e-09%39.71%39.73%39.74%39.76%39.77%39.78%39.80%39.81%39.83%39.84%39.86%39.87%39.89%39.90%39.92%39.93%39.95%39.96%39.98%39.99%40.01%40.02%40.04%40.05%40.07%40.08%40.09%40.11%40.12%40.14%40.15%40.17%40.18%40.20%40.21%40.23%40.24%40.26%40.27%40.29%40.30%40.32%40.33 Reference value :  2.73450e-09%40.35%40.36%40.37%40.39%40.40%40.42%40.43%40.45%40.46%40.48%40.49%40.51%40.52%40.54%40.55%40.57%40.58%40.60%40.61%40.63%40.64%40.66%40.67%40.68%40.70%40.71%40.73%40.74%40.76%40.77%40.79%40.80%40.82%40.83%40.85%40.86%40.88%40.89%40.91%40.92%40.94%40.95 Reference value :  2.77650e-09%40.96%40.98%40.99%41.01%41.02%41.04%41.05%41.07%41.08%41.10%41.11%41.13%41.14%41.16%41.17%41.19%41.20%41.22%41.23%41.25%41.26%41.27%41.29%41.30%41.32%41.33%41.35%41.36%41.38%41.39%41.41%41.42%41.44%41.45%41.47%41.48%41.50%41.51%41.53%41.54%41.55 Reference value :  2.81750e-09%41.57%41.58%41.60%41.61%41.63%41.64%41.66%41.67%41.69%41.70%41.72%41.73%41.75%41.76%41.78%41.79%41.81%41.82%41.84%41.85%41.86%41.88%41.89%41.91%41.92%41.94%41.95%41.97%41.98%42.00%42.01%42.03%42.04%42.06%42.07%42.09%42.10%42.12%42.13%42.14 Reference value :  2.85750e-09%42.16%42.17%42.19%42.20%42.22%42.23%42.25%42.26%42.28%42.29%42.31%42.32%42.34%42.35%42.37%42.38%42.40%42.41%42.43%42.44%42.45%42.47%42.48%42.50%42.51%42.53%42.54%42.56%42.57 Reference value :  2.88650e-09%42.59%42.60%42.62%42.63%42.65%42.66%42.68%42.69%42.71%42.72%42.73%42.75%42.76%42.78%42.79%42.81%42.82%42.84%42.85%42.87%42.88%42.90%42.91%42.93%42.94%42.96%42.97%42.99%43.00%43.01%43.03%43.04%43.06%43.07 Reference value :  2.92050e-09%43.09%43.10%43.12%43.13%43.15%43.16%43.18%43.19%43.21%43.22%43.24%43.25%43.27%43.28%43.30%43.31%43.32%43.34%43.35%43.37%43.38%43.40%43.41%43.43%43.44%43.46%43.47%43.49%43.50%43.52%43.53%43.55%43.56%43.58 Reference value :  2.95450e-09%43.59%43.60%43.62%43.63%43.65%43.66%43.68%43.69%43.71%43.72%43.74%43.75%43.77%43.78%43.80%43.81%43.83%43.84%43.86%43.87%43.89%43.90%43.91%43.93%43.94%43.96 Reference value :  2.98050e-09%43.97%43.99%44.00%44.02%44.03%44.05%44.06%44.08%44.09%44.11%44.12%44.14%44.15%44.17%44.18%44.19%44.21%44.22%44.24%44.25%44.27%44.28%44.30%44.31%44.33%44.34%44.36 Reference value :  3.00750e-09%44.37%44.39%44.40%44.42%44.43%44.45%44.46%44.48%44.49%44.50%44.52%44.53%44.55%44.56%44.58%44.59%44.61%44.62%44.64%44.65%44.67%44.68%44.70%44.71%44.73%44.74%44.76%44.77%44.78%44.80%44.81%44.83 Reference value :  3.03950e-09%44.84%44.86%44.87%44.89%44.90%44.92%44.93%44.95%44.96%44.98%44.99%45.01%45.02%45.04%45.05%45.07%45.08%45.09%45.11%45.12%45.14%45.15%45.17%45.18%45.20%45.21%45.23%45.24 Reference value :  3.06750e-09%45.26%45.27%45.29%45.30%45.32%45.33%45.35%45.36%45.37%45.39%45.40%45.42%45.43%45.45%45.46%45.48%45.49%45.51%45.52%45.54%45.55%45.57%45.58%45.60%45.61%45.63%45.64%45.65%45.67%45.68%45.70%45.71%45.73%45.74%45.76%45.77%45.79%45.80 Reference value :  3.10550e-09%45.82%45.83%45.85%45.86%45.88%45.89%45.91%45.92%45.94%45.95%45.96%45.98%45.99%46.01%46.02%46.04%46.05%46.07%46.08%46.10%46.11%46.13%46.14%46.16%46.17%46.19%46.20%46.22%46.23%46.24%46.26%46.27%46.29%46.30%46.32%46.33%46.35%46.36%46.38%46.39 Reference value :  3.14550e-09%46.41%46.42%46.44%46.45%46.47%46.48%46.50%46.51%46.53%46.54%46.55%46.57%46.58%46.60%46.61%46.63%46.64%46.66%46.67%46.69%46.70%46.72%46.73%46.75%46.76%46.78%46.79%46.81%46.82%46.83%46.85%46.86%46.88%46.89%46.91%46.92%46.94%46.95%46.97%46.98%47.00 Reference value :  3.18650e-09%47.01%47.03%47.04%47.06%47.07%47.09%47.10%47.12%47.13%47.14%47.16%47.17%47.19%47.20%47.22%47.23%47.25%47.26%47.28%47.29%47.31%47.32%47.34%47.35%47.37%47.38%47.40%47.41%47.42%47.44%47.45%47.47%47.48%47.50%47.51%47.53%47.54%47.56%47.57%47.59%47.60%47.62 Reference value :  3.22850e-09%47.63%47.65%47.66%47.68%47.69%47.71%47.72%47.73%47.75%47.76%47.78%47.79%47.81%47.82%47.84%47.85%47.87%47.88%47.90%47.91%47.93%47.94%47.96%47.97%47.99%48.00%48.01%48.03%48.04%48.06%48.07%48.09%48.10%48.12%48.13%48.15%48.16%48.18%48.19%48.21%48.22%48.24 Reference value :  3.27050e-09%48.25%48.27%48.28%48.30%48.31%48.32%48.34%48.35%48.37%48.38%48.40%48.41%48.43%48.44%48.46%48.47%48.49%48.50%48.52%48.53%48.55%48.56%48.58%48.59%48.60%48.62%48.63%48.65%48.66%48.68%48.69%48.71%48.72%48.74%48.75%48.77%48.78%48.80%48.81%48.83%48.84%48.86%48.87%48.88%48.90%48.91 Reference value :  3.31650e-09%48.93%48.94%48.96%48.97%48.99%49.00%49.02%49.03%49.05%49.06%49.08%49.09%49.11%49.12%49.14%49.15%49.17%49.18%49.19%49.21%49.22%49.24%49.25%49.27%49.28%49.30%49.31%49.33%49.34%49.36%49.37%49.39%49.40%49.42%49.43%49.45%49.46%49.47%49.49%49.50%49.52%49.53%49.55%49.56%49.58%49.59%49.61%49.62%49.64%49.65%49.67%49.68%49.70 Reference value :  3.36950e-09%49.71%49.73%49.74%49.76%49.77%49.78%49.80%49.81%49.83%49.84%49.86%49.87%49.89%49.90%49.92%49.93%49.95%49.96%49.98%49.99%50.01%50.02%50.04%50.05%50.06%50.08%50.09%50.11%50.12%50.14%50.15%50.17%50.18%50.20%50.21%50.23%50.24%50.26%50.27%50.29%50.30%50.32%50.33%50.35%50.36%50.37%50.39%50.40%50.42%50.43%50.45%50.46 Reference value :  3.42150e-09%50.48%50.49%50.51%50.52%50.54%50.55%50.57%50.58%50.60%50.61%50.63%50.64%50.65%50.67%50.68%50.70%50.71%50.73%50.74%50.76%50.77%50.79%50.80%50.82%50.83%50.85%50.86%50.88%50.89%50.91%50.92%50.94%50.95%50.96%50.98%50.99%51.01%51.02%51.04%51.05%51.07%51.08%51.10%51.11%51.13%51.14%51.16%51.17%51.19%51.20%51.22%51.23%51.24 Reference value :  3.47450e-09%51.26%51.27%51.29%51.30%51.32%51.33%51.35%51.36%51.38%51.39%51.41%51.42%51.44%51.45%51.47%51.48%51.50%51.51%51.53%51.54%51.55%51.57%51.58%51.60%51.61%51.63%51.64%51.66%51.67%51.69%51.70 Reference value :  3.50550e-09%51.72%51.73%51.75%51.76%51.78%51.79%51.81%51.82%51.83%51.85%51.86%51.88%51.89%51.91%51.92%51.94%51.95%51.97%51.98%52.00%52.01%52.03%52.04%52.06%52.07%52.09%52.10%52.11%52.13%52.14%52.16%52.17%52.19%52.20%52.22%52.23 Reference value :  3.54150e-09%52.25%52.26%52.28%52.29%52.31%52.32%52.34%52.35%52.37%52.38%52.40%52.41%52.42%52.44%52.45%52.47%52.48%52.50%52.51%52.53%52.54%52.56%52.57%52.59%52.60%52.62%52.63%52.65%52.66%52.68%52.69%52.70%52.72%52.73%52.75%52.76%52.78 Reference value :  3.57850e-09%52.79%52.81%52.82%52.84%52.85%52.87%52.88%52.90%52.91%52.93%52.94%52.96%52.97%52.99%53.00%53.01%53.03%53.04%53.06%53.07%53.09%53.10%53.12%53.13%53.15%53.16%53.18%53.19%53.21%53.22%53.24%53.25%53.27%53.28%53.29%53.31%53.32%53.34 Reference value :  3.61650e-09%53.35%53.37%53.38%53.40%53.41%53.43%53.44%53.46%53.47%53.49%53.50%53.52%53.53%53.55%53.56%53.58%53.59%53.60%53.62%53.63%53.65%53.66%53.68%53.69%53.71%53.72%53.74%53.75%53.77%53.78%53.80%53.81%53.83%53.84%53.86%53.87%53.88%53.90 Reference value :  3.65450e-09%53.91%53.93%53.94%53.96%53.97%53.99%54.00%54.02%54.03%54.05%54.06%54.08%54.09%54.11%54.12%54.14%54.15%54.17%54.18%54.19%54.21%54.22%54.24%54.25%54.27%54.28%54.30%54.31%54.33%54.34%54.36%54.37%54.39%54.40%54.42%54.43%54.45%54.46 Reference value :  3.69250e-09%54.47%54.49%54.50%54.52%54.53%54.55%54.56%54.58%54.59%54.61%54.62%54.64%54.65%54.67%54.68%54.70%54.71%54.73%54.74%54.76%54.77%54.78%54.80%54.81%54.83%54.84%54.86%54.87%54.89%54.90%54.92%54.93%54.95%54.96%54.98%54.99%55.01%55.02%55.04 Reference value :  3.73150e-09%55.05%55.06%55.08%55.09%55.11%55.12%55.14%55.15%55.17%55.18%55.20%55.21%55.23%55.24%55.26%55.27%55.29%55.30%55.32%55.33%55.34%55.36%55.37%55.39%55.40%55.42%55.43%55.45%55.46%55.48%55.49%55.51%55.52%55.54%55.55%55.57%55.58 Reference value :  3.76850e-09%55.60%55.61%55.63%55.64%55.65%55.67%55.68%55.70%55.71%55.73%55.74%55.76%55.77%55.79%55.80%55.82%55.83%55.85%55.86%55.88%55.89%55.91%55.92%55.93%55.95%55.96%55.98%55.99%56.01%56.02%56.04%56.05%56.07%56.08%56.10%56.11%56.13%56.14%56.16%56.17%56.19%56.20 Reference value :  3.81050e-09%56.22%56.23%56.24%56.26%56.27%56.29%56.30%56.32%56.33%56.35%56.36%56.38%56.39%56.41%56.42%56.44%56.45%56.47%56.48%56.50%56.51%56.52%56.54%56.55%56.57%56.58%56.60%56.61%56.63%56.64%56.66%56.67%56.69%56.70%56.72%56.73%56.75%56.76%56.78%56.79%56.81%56.82 Reference value :  3.85250e-09%56.83%56.85%56.86%56.88%56.89%56.91%56.92%56.94%56.95%56.97%56.98%57.00%57.01%57.03%57.04%57.06%57.07%57.09%57.10%57.11%57.13%57.14%57.16%57.17%57.19%57.20%57.22%57.23%57.25%57.26%57.28%57.29%57.31%57.32%57.34%57.35%57.37%57.38%57.40%57.41%57.42%57.44 Reference value :  3.89450e-09%57.45%57.47%57.48%57.50%57.51%57.53%57.54%57.56%57.57%57.59%57.60%57.62%57.63%57.65%57.66%57.68%57.69%57.70%57.72%57.73%57.75%57.76%57.78%57.79%57.81%57.82%57.84%57.85%57.87%57.88%57.90%57.91%57.93%57.94%57.96%57.97%57.99%58.00%58.01%58.03%58.04%58.06%58.07 Reference value :  3.93750e-09%58.09%58.10%58.12%58.13%58.15%58.16%58.18%58.19%58.21%58.22%58.24%58.25%58.27%58.28%58.29%58.31%58.32%58.34%58.35%58.37%58.38%58.40%58.41%58.43%58.44%58.46%58.47%58.49%58.50%58.52%58.53%58.55%58.56%58.57%58.59%58.60%58.62%58.63%58.65%58.66%58.68%58.69%58.71 Reference value :  3.98050e-09%58.72%58.74%58.75%58.77%58.78%58.80%58.81%58.83%58.84%58.86%58.87%58.88%58.90%58.91%58.93%58.94%58.96%58.97%58.99%59.00%59.02%59.03%59.05%59.06%59.08%59.09%59.11%59.12%59.14%59.15%59.16%59.18%59.19%59.21%59.22%59.24%59.25%59.27%59.28%59.30%59.31%59.33%59.34 Reference value :  4.02350e-09%59.36%59.37%59.39%59.40%59.42%59.43%59.45%59.46%59.47%59.49%59.50%59.52%59.53%59.55%59.56%59.58%59.59%59.61%59.62%59.64%59.65%59.67%59.68%59.70%59.71%59.73%59.74%59.75%59.77%59.78%59.80%59.81%59.83%59.84%59.86%59.87%59.89%59.90%59.92%59.93%59.95%59.96%59.98 Reference value :  4.06650e-09%59.99%60.01%60.02%60.04%60.05%60.06%60.08%60.09%60.11%60.12%60.14%60.15%60.17%60.18%60.20%60.21%60.23%60.24%60.26%60.27%60.29%60.30%60.32%60.33%60.34%60.36%60.37%60.39%60.40%60.42%60.43%60.45%60.46%60.48%60.49%60.51%60.52%60.54%60.55%60.57%60.58%60.60 Reference value :  4.10850e-09%60.61%60.63%60.64%60.65%60.67%60.68%60.70%60.71%60.73%60.74%60.76%60.77%60.79%60.80%60.82%60.83%60.85%60.86%60.88%60.89%60.91%60.92%60.93%60.95%60.96%60.98%60.99%61.01%61.02%61.04%61.05%61.07%61.08%61.10%61.11%61.13%61.14%61.16%61.17%61.19%61.20%61.22%61.23%61.24 Reference value :  4.15250e-09%61.26%61.27%61.29%61.30%61.32%61.33%61.35%61.36%61.38%61.39%61.41%61.42%61.44%61.45%61.47%61.48%61.50%61.51%61.52%61.54%61.55%61.57%61.58%61.60%61.61%61.63%61.64%61.66%61.67%61.69%61.70%61.72%61.73%61.75%61.76%61.78%61.79%61.80%61.82%61.83%61.85%61.86%61.88 Reference value :  4.19550e-09%61.89%61.91%61.92%61.94%61.95%61.97%61.98%62.00%62.01%62.03%62.04%62.06%62.07%62.09%62.10%62.11%62.13%62.14%62.16%62.17%62.19%62.20%62.22%62.23%62.25%62.26%62.28%62.29%62.31%62.32%62.34%62.35%62.37%62.38%62.39%62.41%62.42%62.44%62.45%62.47 Reference value :  4.23550e-09%62.48%62.50%62.51%62.53%62.54%62.56%62.57%62.59%62.60%62.62%62.63%62.65%62.66%62.68%62.69%62.70%62.72%62.73%62.75%62.76%62.78%62.79%62.81%62.82%62.84%62.85%62.87%62.88%62.90%62.91%62.93%62.94%62.96%62.97%62.98%63.00%63.01%63.03%63.04 Reference value :  4.27450e-09%63.06%63.07%63.09%63.10%63.12%63.13%63.15%63.16%63.18%63.19%63.21%63.22%63.24%63.25%63.27%63.28%63.29%63.31%63.32%63.34%63.35%63.37%63.38%63.40%63.41%63.43%63.44%63.46%63.47%63.49%63.50%63.52%63.53%63.55%63.56%63.57%63.59%63.60%63.62%63.63%63.65%63.66%63.68%63.69%63.71%63.72%63.74%63.75%63.77%63.78%63.80%63.81 Reference value :  4.32650e-09%63.83%63.84%63.86%63.87%63.88%63.90%63.91%63.93%63.94%63.96%63.97%63.99%64.00%64.02%64.03%64.05%64.06%64.08%64.09%64.11%64.12%64.14%64.15%64.16%64.18%64.19%64.21%64.22%64.24%64.25%64.27%64.28%64.30%64.31%64.33%64.34%64.36%64.37%64.39%64.40%64.42%64.43%64.45%64.46%64.47%64.49%64.50%64.52%64.53%64.55%64.56%64.58%64.59%64.61%64.62%64.64 Reference value :  4.38250e-09%64.65%64.67%64.68%64.70%64.71%64.73%64.74%64.75%64.77%64.78%64.80%64.81%64.83%64.84%64.86%64.87%64.89%64.90%64.92%64.93%64.95%64.96%64.98%64.99%65.01%65.02%65.03%65.05%65.06%65.08%65.09%65.11%65.12%65.14%65.15%65.17 Reference value :  4.41850e-09%65.18%65.20%65.21%65.23%65.24%65.26%65.27%65.29%65.30%65.32%65.33%65.34%65.36%65.37%65.39%65.40%65.42%65.43%65.45%65.46%65.48%65.49%65.51%65.52%65.54%65.55%65.57%65.58%65.60%65.61%65.62%65.64%65.65%65.67%65.68%65.70 Reference value :  4.45450e-09%65.71%65.73%65.74%65.76%65.77%65.79%65.80%65.82%65.83%65.85%65.86%65.88%65.89%65.91%65.92%65.93%65.95%65.96%65.98%65.99%66.01%66.02%66.04%66.05%66.07%66.08%66.10%66.11%66.13%66.14%66.16%66.17%66.19%66.20%66.21%66.23%66.24%66.26%66.27%66.29%66.30%66.32 Reference value :  4.49650e-09%66.33%66.35%66.36%66.38%66.39%66.41%66.42%66.44%66.45%66.47%66.48%66.50%66.51%66.52%66.54%66.55%66.57%66.58%66.60%66.61%66.63%66.64%66.66%66.67%66.69%66.70%66.72%66.73%66.75%66.76%66.78%66.79%66.80%66.82%66.83%66.85%66.86%66.88%66.89%66.91%66.92%66.94%66.95 Reference value :  4.53950e-09%66.97%66.98%67.00%67.01%67.03%67.04%67.06%67.07%67.09%67.10%67.11%67.13%67.14%67.16%67.17%67.19%67.20%67.22%67.23%67.25%67.26%67.28%67.29%67.31%67.32%67.34%67.35%67.37%67.38%67.39%67.41%67.42%67.44%67.45%67.47%67.48%67.50%67.51%67.53%67.54%67.56 Reference value :  4.58050e-09%67.57%67.59%67.60%67.62%67.63%67.65%67.66%67.67%67.69%67.70%67.72%67.73%67.75%67.76%67.78%67.79%67.81%67.82%67.84%67.85%67.87%67.88%67.90%67.91%67.93%67.94%67.96%67.97%67.98%68.00%68.01%68.03%68.04%68.06%68.07%68.09%68.10%68.12%68.13%68.15%68.16%68.18%68.19 Reference value :  4.62350e-09%68.21%68.22%68.24%68.25%68.26%68.28%68.29%68.31%68.32%68.34%68.35%68.37%68.38%68.40%68.41%68.43%68.44%68.46%68.47%68.49%68.50%68.52%68.53%68.55%68.56%68.57%68.59%68.60%68.62%68.63%68.65%68.66%68.68%68.69%68.71%68.72%68.74%68.75%68.77%68.78%68.80%68.81%68.83 Reference value :  4.66650e-09%68.84%68.85%68.87%68.88%68.90%68.91%68.93%68.94%68.96%68.97%68.99%69.00%69.02%69.03%69.05%69.06%69.08%69.09%69.11%69.12%69.14%69.15%69.16%69.18%69.19%69.21%69.22%69.24%69.25%69.27%69.28%69.30%69.31%69.33%69.34%69.36%69.37%69.39%69.40%69.42%69.43%69.44%69.46 Reference value :  4.70950e-09%69.47%69.49%69.50%69.52%69.53%69.55%69.56%69.58%69.59%69.61%69.62%69.64%69.65%69.67%69.68%69.70%69.71%69.73%69.74%69.75%69.77%69.78%69.80%69.81%69.83%69.84%69.86%69.87%69.89%69.90%69.92%69.93%69.95%69.96%69.98%69.99%70.01%70.02%70.03%70.05%70.06%70.08%70.09 Reference value :  4.75250e-09%70.11%70.12%70.14%70.15%70.17%70.18%70.20%70.21%70.23%70.24%70.26%70.27%70.29%70.30%70.32%70.33%70.34%70.36%70.37%70.39%70.40%70.42%70.43%70.45%70.46%70.48%70.49%70.51%70.52%70.54%70.55%70.57%70.58%70.60%70.61%70.62%70.64%70.65%70.67%70.68%70.70%70.71%70.73 Reference value :  4.79550e-09%70.74%70.76%70.77%70.79%70.80%70.82%70.83%70.85%70.86%70.88%70.89%70.90%70.92%70.93%70.95%70.96%70.98%70.99%71.01%71.02%71.04%71.05%71.07%71.08%71.10%71.11%71.13%71.14%71.16%71.17%71.19%71.20%71.21%71.23%71.24%71.26%71.27%71.29%71.30%71.32%71.33%71.35%71.36 Reference value :  4.83850e-09%71.38%71.39%71.41%71.42%71.44%71.45%71.47%71.48%71.49%71.51%71.52%71.54%71.55%71.57%71.58%71.60%71.61%71.63%71.64%71.66%71.67%71.69%71.70%71.72%71.73%71.75%71.76%71.78%71.79%71.80%71.82%71.83%71.85%71.86%71.88%71.89%71.91%71.92%71.94%71.95%71.97%71.98%72.00 Reference value :  4.88150e-09%72.01%72.03%72.04%72.06%72.07%72.08%72.10%72.11%72.13%72.14%72.16%72.17%72.19%72.20%72.22%72.23%72.25%72.26%72.28%72.29%72.31%72.32%72.34%72.35%72.37%72.38%72.39%72.41%72.42%72.44%72.45%72.47%72.48%72.50%72.51%72.53%72.54%72.56%72.57%72.59%72.60%72.62 Reference value :  4.92350e-09%72.63%72.65%72.66%72.67%72.69%72.70%72.72%72.73%72.75%72.76%72.78%72.79%72.81%72.82%72.84%72.85%72.87%72.88%72.90%72.91%72.93%72.94%72.96%72.97%72.98%73.00%73.01%73.03%73.04%73.06%73.07%73.09%73.10%73.12%73.13%73.15%73.16%73.18%73.19%73.21 Reference value :  4.96350e-09%73.22%73.24%73.25%73.26%73.28%73.29%73.31%73.32%73.34%73.35%73.37%73.38%73.40%73.41%73.43%73.44%73.46%73.47%73.49%73.50%73.52%73.53%73.55%73.56%73.57%73.59%73.60%73.62%73.63%73.65%73.66%73.68%73.69%73.71%73.72%73.74%73.75%73.77%73.78%73.80%73.81%73.83 Reference value :  5.00550e-09%73.84%73.85%73.87%73.88%73.90%73.91%73.93%73.94%73.96%73.97%73.99%74.00%74.02%74.03%74.05%74.06%74.08%74.09%74.11%74.12%74.13%74.15%74.16%74.18%74.19%74.21%74.22%74.24%74.25%74.27%74.28%74.30%74.31%74.33%74.34%74.36%74.37%74.39%74.40%74.42%74.43%74.44%74.46%74.47%74.49%74.50%74.52 Reference value :  5.05250e-09%74.53%74.55%74.56%74.58%74.59%74.61%74.62%74.64%74.65%74.67%74.68%74.70%74.71%74.72%74.74%74.75%74.77%74.78%74.80%74.81%74.83%74.84%74.86%74.87%74.89%74.90%74.92%74.93%74.95%74.96%74.98%74.99%75.01%75.02%75.03%75.05%75.06%75.08%75.09%75.11%75.12%75.14%75.15%75.17%75.18%75.20 Reference value :  5.09850e-09%75.21%75.23%75.24%75.26%75.27%75.29%75.30%75.31%75.33%75.34
[...]

No. of Data Rows : 6824

  Measurements for Transient Analysis

sim_delay_subckt_8644_sff1_x4_sff_m___subckt_8644_sff1_x4_y=  2.268337e-11 targ=  3.095300e-09 trig=  3.072617e-09
sim_slope_subckt_8644_sff1_x4_y=  2.809838e-11 targ=  3.114172e-09 trig=  3.086074e-09
sim_delay_subckt_8644_sff1_x4_u___subckt_8644_sff1_x4_sff_m=  3.433904e-11 targ=  3.072617e-09 trig=  3.038278e-09
sim_slope_subckt_8644_sff1_x4_sff_m=  2.500203e-11 targ=  3.084621e-09 trig=  3.059619e-09
sim_loop_feed_back_delay=  2.268337e-11 targ=  3.095300e-09 trig=  3.072617e-09
sim_delay_procmux_1296_y_31___subckt_8644_sff1_x4_u=  1.663940e-11 targ=  3.038278e-09 trig=  3.021639e-09
sim_slope_subckt_8644_sff1_x4_u=  1.430395e-11 targ=  3.046722e-09 trig=  3.032418e-09
sim_delay_subckt_1184_oa22_x2__net0___procmux_1296_y_31=  1.684164e-11 targ=  3.021639e-09 trig=  3.004797e-09
sim_slope_procmux_1296_y_31=  1.577573e-11 targ=  3.028948e-09 trig=  3.013172e-09
sim_delay_abc_30082_new_n4460___subckt_1184_oa22_x2__net0=  4.730072e-11 targ=  3.004797e-09 trig=  2.957496e-09
sim_slope_subckt_1184_oa22_x2__net0=  6.015279e-11 targ=  3.041939e-09 trig=  2.981786e-09
sim_delay_subckt_1171_ao22_x2__net0___abc_30082_new_n4460=  1.865194e-11 targ=  2.957496e-09 trig=  2.938844e-09
sim_slope_abc_30082_new_n4460=  1.619694e-11 targ=  2.964845e-09 trig=  2.948648e-09
sim_delay_abc_30082_new_n4457___subckt_1171_ao22_x2__net0=  4.449436e-11 targ=  2.938844e-09 trig=  2.894350e-09
sim_slope_subckt_1171_ao22_x2__net0=  5.632912e-11 targ=  2.974180e-09 trig=  2.917851e-09
sim_delay_subckt_1168_oa22_x2__net0___abc_30082_new_n4457=  2.256347e-11 targ=  2.894350e-09 trig=  2.871787e-09
sim_slope_abc_30082_new_n4457=  2.197141e-11 targ=  2.904525e-09 trig=  2.882554e-09
sim_delay_abc_30082_new_n4439___subckt_1168_oa22_x2__net0=  6.237483e-11 targ=  2.871787e-09 trig=  2.809412e-09
sim_slope_subckt_1168_oa22_x2__net0=  7.072026e-11 targ=  2.911870e-09 trig=  2.841149e-09
sim_delay_subckt_1150_oa22_x2__net0___abc_30082_new_n4439=  3.164634e-11 targ=  2.809412e-09 trig=  2.777765e-09
sim_slope_abc_30082_new_n4439=  2.761141e-11 targ=  2.821805e-09 trig=  2.794194e-09
sim_delay_abc_30082_new_n4420___subckt_1150_oa22_x2__net0=  6.206629e-11 targ=  2.777765e-09 trig=  2.715699e-09
sim_slope_subckt_1150_oa22_x2__net0=  6.733023e-11 targ=  2.814811e-09 trig=  2.747480e-09
sim_delay_subckt_1131_oa22_x2__net0___abc_30082_new_n4420=  3.164465e-11 targ=  2.715699e-09 trig=  2.684054e-09
sim_slope_abc_30082_new_n4420=  2.760869e-11 targ=  2.728093e-09 trig=  2.700484e-09
sim_delay_abc_30082_new_n4401___subckt_1131_oa22_x2__net0=  6.248935e-11 targ=  2.684054e-09 trig=  2.621565e-09
sim_slope_subckt_1131_oa22_x2__net0=  6.733407e-11 targ=  2.721099e-09 trig=  2.653765e-09
sim_delay_subckt_1112_oa22_x2__net0___abc_30082_new_n4401=  3.275623e-11 targ=  2.621565e-09 trig=  2.588809e-09
sim_slope_abc_30082_new_n4401=  2.882106e-11 targ=  2.634604e-09 trig=  2.605783e-09
sim_delay_abc_30082_new_n4382___subckt_1112_oa22_x2__net0=  6.204476e-11 targ=  2.588809e-09 trig=  2.526764e-09
sim_slope_subckt_1112_oa22_x2__net0=  6.704610e-11 targ=  2.625597e-09 trig=  2.558551e-09
sim_delay_subckt_1093_oa22_x2__net0___abc_30082_new_n4382=  3.164472e-11 targ=  2.526764e-09 trig=  2.495119e-09
sim_slope_abc_30082_new_n4382=  2.760873e-11 targ=  2.539158e-09 trig=  2.511549e-09
sim_delay_abc_30082_new_n4363___subckt_1093_oa22_x2__net0=  6.248934e-11 targ=  2.495119e-09 trig=  2.432630e-09
sim_slope_subckt_1093_oa22_x2__net0=  6.733379e-11 targ=  2.532164e-09 trig=  2.464830e-09
sim_delay_subckt_1074_oa22_x2__net0___abc_30082_new_n4363=  3.275598e-11 targ=  2.432630e-09 trig=  2.399874e-09
sim_slope_abc_30082_new_n4363=  2.882203e-11 targ=  2.445670e-09 trig=  2.416848e-09
sim_delay_abc_30082_new_n4344___subckt_1074_oa22_x2__net0=  6.204486e-11 targ=  2.399874e-09 trig=  2.337829e-09
sim_slope_subckt_1074_oa22_x2__net0=  6.704683e-11 targ=  2.436663e-09 trig=  2.369616e-09
sim_delay_subckt_1055_oa22_x2__net0___abc_30082_new_n4344=  3.164490e-11 targ=  2.337829e-09 trig=  2.306184e-09
sim_slope_abc_30082_new_n4344=  2.760902e-11 targ=  2.350223e-09 trig=  2.322614e-09
sim_delay_abc_30082_new_n4325___subckt_1055_oa22_x2__net0=  6.248926e-11 targ=  2.306184e-09 trig=  2.243695e-09
sim_slope_subckt_1055_oa22_x2__net0=  6.733340e-11 targ=  2.343229e-09 trig=  2.275895e-09
sim_delay_subckt_1036_oa22_x2__net0___abc_30082_new_n4325=  3.275588e-11 targ=  2.243695e-09 trig=  2.210939e-09
sim_slope_abc_30082_new_n4325=  2.882274e-11 targ=  2.256736e-09 trig=  2.227913e-09
sim_delay_abc_30082_new_n4306___subckt_1036_oa22_x2__net0=  6.204481e-11 targ=  2.210939e-09 trig=  2.148894e-09
sim_slope_subckt_1036_oa22_x2__net0=  6.704742e-11 targ=  2.247729e-09 trig=  2.180681e-09
sim_delay_subckt_1017_oa22_x2__net0___abc_30082_new_n4306=  3.164498e-11 targ=  2.148894e-09 trig=  2.117249e-09
sim_slope_abc_30082_new_n4306=  2.760912e-11 targ=  2.161288e-09 trig=  2.133678e-09
sim_delay_abc_30082_new_n4287___subckt_1017_oa22_x2__net0=  6.248927e-11 targ=  2.117249e-09 trig=  2.054760e-09
sim_slope_subckt_1017_oa22_x2__net0=  6.733283e-11 targ=  2.154294e-09 trig=  2.086961e-09
sim_delay_subckt_998_oa22_x2__net0___abc_30082_new_n4287=  3.275595e-11 targ=  2.054760e-09 trig=  2.022004e-09
sim_slope_abc_30082_new_n4287=  2.882321e-11 targ=  2.067801e-09 trig=  2.038978e-09
sim_delay_abc_30082_new_n4268___subckt_998_oa22_x2__net0=  6.204461e-11 targ=  2.022004e-09 trig=  1.959960e-09
sim_slope_subckt_998_oa22_x2__net0=  6.704794e-11 targ=  2.058794e-09 trig=  1.991747e-09
sim_delay_subckt_979_oa22_x2__net0___abc_30082_new_n4268=  3.164504e-11 targ=  1.959960e-09 trig=  1.928315e-09
sim_slope_abc_30082_new_n4268=  2.760905e-11 targ=  1.972352e-09 trig=  1.944743e-09
sim_delay_abc_30082_new_n4249___subckt_979_oa22_x2__net0=  6.248932e-11 targ=  1.928315e-09 trig=  1.865825e-09
sim_slope_subckt_979_oa22_x2__net0=  6.733212e-11 targ=  1.965358e-09 trig=  1.898026e-09
sim_delay_subckt_960_oa22_x2__net0___abc_30082_new_n4249=  3.275607e-11 targ=  1.865825e-09 trig=  1.833069e-09
sim_slope_abc_30082_new_n4249=  2.882344e-11 targ=  1.878867e-09 trig=  1.850043e-09
sim_delay_abc_30082_new_n4230___subckt_960_oa22_x2__net0=  6.204429e-11 targ=  1.833069e-09 trig=  1.771025e-09
sim_slope_subckt_960_oa22_x2__net0=  6.704834e-11 targ=  1.869860e-09 trig=  1.802812e-09
sim_delay_subckt_941_oa22_x2__net0___abc_30082_new_n4230=  3.164510e-11 targ=  1.771025e-09 trig=  1.739380e-09
sim_slope_abc_30082_new_n4230=  2.760878e-11 targ=  1.783417e-09 trig=  1.755808e-09
sim_delay_abc_30082_new_n4211___subckt_941_oa22_x2__net0=  6.248941e-11 targ=  1.739380e-09 trig=  1.676890e-09
sim_slope_subckt_941_oa22_x2__net0=  6.733130e-11 targ=  1.776422e-09 trig=  1.709091e-09
sim_delay_subckt_922_oa22_x2__net0___abc_30082_new_n4211=  3.275617e-11 targ=  1.676890e-09 trig=  1.644134e-09
sim_slope_abc_30082_new_n4211=  2.882344e-11 targ=  1.689932e-09 trig=  1.661109e-09
sim_delay_abc_30082_new_n4192___subckt_922_oa22_x2__net0=  6.204406e-11 targ=  1.644134e-09 trig=  1.582090e-09
sim_slope_subckt_922_oa22_x2__net0=  6.704860e-11 targ=  1.680926e-09 trig=  1.613877e-09
sim_delay_subckt_903_oa22_x2__net0___abc_30082_new_n4192=  3.164514e-11 targ=  1.582090e-09 trig=  1.550445e-09
sim_slope_abc_30082_new_n4192=  2.760839e-11 targ=  1.594481e-09 trig=  1.566873e-09
sim_delay_abc_30082_new_n4173___subckt_903_oa22_x2__net0=  6.248952e-11 targ=  1.550445e-09 trig=  1.487955e-09
sim_slope_subckt_903_oa22_x2__net0=  6.733032e-11 targ=  1.587487e-09 trig=  1.520156e-09
sim_delay_subckt_884_oa22_x2__net0___abc_30082_new_n4173=  3.275625e-11 targ=  1.487955e-09 trig=  1.455199e-09
sim_slope_abc_30082_new_n4173=  2.882321e-11 targ=  1.500997e-09 trig=  1.472174e-09
sim_delay_abc_30082_new_n4150___subckt_884_oa22_x2__net0=  6.204387e-11 targ=  1.455199e-09 trig=  1.393155e-09
sim_slope_subckt_884_oa22_x2__net0=  6.704874e-11 targ=  1.491991e-09 trig=  1.424942e-09
sim_delay_subckt_861_oa22_x2__net0___abc_30082_new_n4150=  3.164508e-11 targ=  1.393155e-09 trig=  1.361510e-09
sim_slope_abc_30082_new_n4150=  2.760906e-11 targ=  1.405547e-09 trig=  1.377938e-09
sim_delay_abc_30082_new_n4130___subckt_861_oa22_x2__net0=  6.248972e-11 targ=  1.361510e-09 trig=  1.299021e-09
sim_slope_subckt_861_oa22_x2__net0=  6.733092e-11 targ=  1.398552e-09 trig=  1.331221e-09
sim_delay_subckt_841_oa22_x2__net0___abc_30082_new_n4130=  3.275630e-11 targ=  1.299021e-09 trig=  1.266264e-09
sim_slope_abc_30082_new_n4130=  2.882277e-11 targ=  1.312062e-09 trig=  1.283240e-09
sim_delay_abc_30082_new_n4110___subckt_841_oa22_x2__net0=  6.204365e-11 targ=  1.266264e-09 trig=  1.204221e-09
sim_slope_subckt_841_oa22_x2__net0=  6.704873e-11 targ=  1.303056e-09 trig=  1.236007e-09
sim_delay_subckt_821_oa22_x2__net0___abc_30082_new_n4110=  3.164494e-11 targ=  1.204221e-09 trig=  1.172576e-09
sim_slope_abc_30082_new_n4110=  2.760998e-11 targ=  1.216613e-09 trig=  1.189003e-09
sim_delay_abc_30082_new_n4090___subckt_821_oa22_x2__net0=  6.249012e-11 targ=  1.172576e-09 trig=  1.110085e-09
sim_slope_subckt_821_oa22_x2__net0=  6.733197e-11 targ=  1.209618e-09 trig=  1.142286e-09
sim_delay_subckt_801_oa22_x2__net0___abc_30082_new_n4090=  3.275642e-11 targ=  1.110085e-09 trig=  1.077329e-09
sim_slope_abc_30082_new_n4090=  2.882212e-11 targ=  1.123127e-09 trig=  1.094305e-09
sim_delay_abc_30082_new_n4070___subckt_801_oa22_x2__net0=  6.204344e-11 targ=  1.077329e-09 trig=  1.015286e-09
sim_slope_subckt_801_oa22_x2__net0=  6.704867e-11 targ=  1.114121e-09 trig=  1.047072e-09
sim_delay_subckt_781_oa22_x2__net0___abc_30082_new_n4070=  3.164485e-11 targ=  1.015286e-09 trig=  9.836408e-10
sim_slope_abc_30082_new_n4070=  2.761060e-11 targ=  1.027679e-09 trig=  1.000068e-09
sim_delay_abc_30082_new_n4050___subckt_781_oa22_x2__net0=  6.249037e-11 targ=  9.836408e-10 trig=  9.211504e-10
sim_slope_subckt_781_oa22_x2__net0=  6.733277e-11 targ=  1.020684e-09 trig=  9.533512e-10
sim_delay_subckt_761_oa22_x2__net0___abc_30082_new_n4050=  3.275641e-11 targ=  9.211504e-10 trig=  8.883940e-10
sim_slope_abc_30082_new_n4050=  2.882127e-11 targ=  9.341915e-10 trig=  9.053702e-10
sim_delay_abc_30082_new_n4030___subckt_761_oa22_x2__net0=  6.204323e-11 targ=  8.883940e-10 trig=  8.263508e-10
sim_slope_subckt_761_oa22_x2__net0=  6.704838e-11 targ=  9.251853e-10 trig=  8.581369e-10
sim_delay_subckt_741_oa22_x2__net0___abc_30082_new_n4030=  3.164370e-11 targ=  8.263508e-10 trig=  7.947071e-10
sim_slope_abc_30082_new_n4030=  2.761123e-11 targ=  8.387439e-10 trig=  8.111327e-10
sim_delay_abc_30082_new_n4007___subckt_741_oa22_x2__net0=  6.288058e-11 targ=  7.947071e-10 trig=  7.318265e-10
sim_slope_subckt_741_oa22_x2__net0=  6.734141e-11 targ=  8.317493e-10 trig=  7.644079e-10
sim_delay_subckt_718_oa22_x2__net0___abc_30082_new_n4007=  3.366788e-11 targ=  7.318265e-10 trig=  6.981586e-10
sim_slope_abc_30082_new_n4007=  2.990645e-11 targ=  7.454513e-10 trig=  7.155449e-10
sim_delay_abc_30082_new_n3986___subckt_718_oa22_x2__net0=  6.284214e-11 targ=  6.981586e-10 trig=  6.353165e-10
sim_slope_subckt_718_oa22_x2__net0=  6.685215e-11 targ=  7.347581e-10 trig=  6.679059e-10
sim_delay_subckt_697_oa22_x2__net0___abc_30082_new_n3986=  3.366828e-11 targ=  6.353165e-10 trig=  6.016482e-10
sim_slope_abc_30082_new_n3986=  2.991108e-11 targ=  6.489436e-10 trig=  6.190325e-10
sim_delay_abc_30082_new_n3962___subckt_697_oa22_x2__net0=  6.245361e-11 targ=  6.016482e-10 trig=  5.391946e-10
sim_slope_subckt_697_oa22_x2__net0=  6.684398e-11 targ=  6.382475e-10 trig=  5.714036e-10
sim_delay_subckt_673_oa22_x2__net0___abc_30082_new_n3962=  3.275509e-11 targ=  5.391946e-10 trig=  5.064395e-10
sim_slope_abc_30082_new_n3962=  2.882073e-11 targ=  5.522352e-10 trig=  5.234145e-10
sim_delay_abc_30082_new_n3938___subckt_673_oa22_x2__net0=  6.246810e-11 targ=  5.064395e-10 trig=  4.439714e-10
sim_slope_subckt_673_oa22_x2__net0=  6.705180e-11 targ=  5.432289e-10 trig=  4.761771e-10
sim_delay_subckt_649_oa22_x2__net0___abc_30082_new_n3938=  3.275499e-11 targ=  4.439714e-10 trig=  4.112164e-10
sim_slope_abc_30082_new_n3938=  2.882329e-11 targ=  4.570132e-10 trig=  4.281899e-10
sim_delay_abc_30082_new_n3915___subckt_649_oa22_x2__net0=  6.246841e-11 targ=  4.112164e-10 trig=  3.487480e-10
sim_slope_subckt_649_oa22_x2__net0=  6.705250e-11 targ=  4.480067e-10 trig=  3.809542e-10
sim_delay_subckt_626_oa22_x2__net0___abc_30082_new_n3915=  3.276289e-11 targ=  3.487480e-10 trig=  3.159851e-10
sim_slope_abc_30082_new_n3915=  2.882597e-11 targ=  3.617906e-10 trig=  3.329646e-10
sim_delay_abc_30082_new_n3891___subckt_626_oa22_x2__net0=  5.948591e-11 targ=  3.159851e-10 trig=  2.564992e-10
sim_slope_subckt_626_oa22_x2__net0=  6.711931e-11 targ=  3.527909e-10 trig=  2.856716e-10
sim_delay_subckt_602_oa22_x2__net0___abc_30082_new_n3891=  1.930815e-11 targ=  2.564992e-10 trig=  2.371911e-10
sim_slope_abc_30082_new_n3891=  1.785993e-11 targ=  2.643406e-10 trig=  2.464807e-10
sim_delay_abc_30082_new_n3860___subckt_602_oa22_x2__net0=  5.988971e-11 targ=  2.371911e-10 trig=  1.773013e-10
sim_slope_subckt_602_oa22_x2__net0=  7.073042e-11 targ=  2.772244e-10 trig=  2.064940e-10
sim_delay_subckt_571_a2_x2__net0___abc_30082_new_n3860=  2.124767e-11 targ=  1.773013e-10 trig=  1.560537e-10
sim_slope_abc_30082_new_n3860=  1.618310e-11 targ=  1.848386e-10 trig=  1.686555e-10
sim_delay_decoded_imm_1___subckt_571_a2_x2__net0=  3.681102e-11 targ=  1.560537e-10 trig=  1.192427e-10
sim_slope_subckt_571_a2_x2__net0=  2.926913e-11 targ=  1.714314e-10 trig=  1.421623e-10
sim_delay_subckt_8938_sff1_x4_sff_s___decoded_imm_1=  5.195797e-11 targ=  1.192427e-10 trig=  6.728469e-11
sim_slope_decoded_imm_1=  4.824308e-11 targ=  1.413765e-10 trig=  9.313342e-11
sim_delay_subckt_8938_sff1_x4_sff_s___subckt_8644_sff1_x4_sff_m=  3.005332e-09 targ=  3.072617e-09 trig=  6.728469e-11


Total analysis time (seconds) = 22.87

Total elapsed time (seconds) = 26.290 

Total DRAM available = 128547.226562 MB.
DRAM currently available = 99715.953125 MB.
Total ngspice program size = 33.861328 MB.
Resident set size = 15.018555 MB.
Shared ngspice pages = 901.000 kB.
Text (code) pages = 1.983398 MB.
Stack = 0 bytes.
Library pages = 16.184570 MB.

